hco+.dat
example.out
50 1000
30
1
H2
1e5
2.73
1e15
1.0
1
3
1.e-6
0.3
1
hco+.dat
example.out
50 1000
30
1
H2
1e5
8.5
1e15
1.0
1
3
1.e-6
0.3
1
hco+.dat
example.out
50 1000
30
1
H2
1e5
15.
1e15
1.0
1
3
1.e-6
0.3
1
hco+.dat
example.out
50 1000
30
1
H2
1e5
2.73
1e15
1.0
1
1
1.e-6
0.3
1
hco+.dat
example.out
50 1000
30
1
H2
1e5
8.5
1e15
1.0
1
1
1.e-6
0.3
1
hco+.dat
example.out
50 1000
30
1
H2
1e5
15.
1e15
1.0
1
1
1.e-6
0.3
1
hco+.dat
example.out
50 1000
30
1
H2
1e5
2.73
1e15
1.0
1
2
1.e-6
0.3
1
hco+.dat
example.out
50 1000
30
1
H2
1e5
8.5
1e15
1.0
1
2
1.e-6
0.3
1
hco+.dat
example.out
50 1000
30
1
H2
1e5
15.
1e15
1.0
1
2
1.e-6
0.3
0
#molecule data
#output
#Freq : fmin - fmx
#Tkin : 0.1 - 1e4
#Number of collision partners ? : 1 - 7
#Type of partner : H2
#Density(H2)     : 1e-3 - 1e13
#Tbg             :  0.1 - 1e4
#Column density  :  1e5 - 1e25
#Line width      :  1e-3 - 1e-3
